Version 4.1
SHEET 1 5868 2084
WIRE 2896 1232 2544 1232
WIRE 2896 1248 2896 1232
WIRE 1408 1264 1216 1264
WIRE 1520 1264 1408 1264
WIRE 1648 1264 1520 1264
WIRE 1776 1264 1648 1264
WIRE 1904 1264 1776 1264
WIRE 1216 1280 1216 1264
WIRE 1408 1280 1408 1264
WIRE 1904 1280 1904 1264
WIRE 1648 1296 1648 1264
WIRE 1776 1296 1776 1264
WIRE 1216 1376 1216 1360
WIRE 1408 1376 1408 1344
WIRE 1520 1376 1520 1264
WIRE 1552 1376 1520 1376
WIRE 1968 1376 1872 1376
WIRE 2080 1376 2048 1376
WIRE 2176 1376 2080 1376
WIRE 2272 1376 2176 1376
WIRE 2368 1376 2272 1376
WIRE 2496 1376 2368 1376
WIRE 2544 1376 2544 1232
WIRE 2544 1376 2496 1376
WIRE 2080 1392 2080 1376
WIRE 2176 1392 2176 1376
WIRE 2272 1392 2272 1376
WIRE 2496 1424 2496 1376
WIRE 1248 1456 1200 1456
WIRE 1360 1456 1328 1456
WIRE 1552 1456 1360 1456
WIRE 1936 1456 1872 1456
WIRE 2016 1456 1936 1456
WIRE 1200 1472 1200 1456
WIRE 1360 1472 1360 1456
WIRE 1936 1472 1936 1456
WIRE 2016 1488 2016 1456
WIRE 2080 1488 2080 1472
WIRE 2080 1488 2016 1488
WIRE 2176 1488 2176 1456
WIRE 2176 1488 2080 1488
WIRE 2272 1488 2272 1456
WIRE 2080 1504 2080 1488
WIRE 1456 1536 1440 1536
WIRE 1552 1536 1536 1536
WIRE 1904 1536 1904 1360
WIRE 1904 1536 1872 1536
WIRE 2896 1536 2896 1328
WIRE 2896 1536 2816 1536
WIRE 2976 1536 2896 1536
WIRE 3152 1536 3040 1536
WIRE 3200 1536 3152 1536
WIRE 3360 1536 3280 1536
WIRE 3424 1536 3360 1536
WIRE 3584 1536 3504 1536
WIRE 3696 1536 3584 1536
WIRE 1200 1552 1200 1536
WIRE 1360 1552 1360 1536
WIRE 1936 1568 1936 1552
WIRE 3696 1568 3696 1536
WIRE 3360 1584 3360 1536
WIRE 3584 1584 3584 1536
WIRE 2080 1600 2080 1584
WIRE 3152 1600 3152 1536
WIRE 2688 1616 2656 1616
WIRE 1648 1632 1648 1616
WIRE 1776 1632 1776 1616
WIRE 1952 1808 1952 1776
FLAG 1776 1632 0
FLAG 1648 1632 0
FLAG 1216 1376 0
FLAG 1440 1536 0
FLAG 2080 1600 0
FLAG 2272 1488 0
FLAG 1200 1552 0
FLAG 2368 1376 OUT
FLAG 1360 1552 0
FLAG 1408 1376 0
FLAG 1216 1264 IN
FLAG 1952 1888 0
FLAG 1952 1776 XYZ
FLAG 1936 1648 0
FLAG 2656 1696 0
FLAG 2816 1632 0
FLAG 3152 1664 0
FLAG 3584 1648 0
FLAG 3696 1648 0
FLAG 3360 1648 0
FLAG 2496 1488 0
SYMBOL ind 1952 1392 R270
WINDOW 0 32 56 VTop 2
WINDOW 3 5 56 VBottom 2
SYMATTR InstName L1
SYMATTR Value 2.2µ
SYMATTR SpiceLine Ipk=2.3 Rser=0.06 Rpar=55000 Cpar=1.8p mfg="Coilcraft" pn="DO1608P-222"
SYMBOL RES 2064 1376 R0
SYMATTR InstName R1
SYMATTR Value 100k
SYMBOL VOLTAGE 1216 1264 R0
WINDOW 123 0 0 Left 2
WINDOW 39 24 132 Left 2
SYMATTR InstName V1
SYMATTR Value 13.8
SYMBOL res 2064 1488 R0
SYMATTR InstName R2
SYMATTR Value 10k
SYMBOL res 1552 1520 R90
WINDOW 0 0 56 VBottom 2
WINDOW 3 32 56 VTop 2
SYMATTR InstName R3
SYMATTR Value 324K
SYMBOL res 1344 1440 R90
WINDOW 0 0 56 VBottom 2
WINDOW 3 32 56 VTop 2
SYMATTR InstName R4
SYMATTR Value 20K
SYMBOL cap 1184 1472 R0
SYMATTR InstName C1
SYMATTR Value 220p
SYMBOL res 1888 1264 R0
SYMATTR InstName R5
SYMATTR Value 10K
SYMBOL cap 2160 1392 R0
SYMATTR InstName C2
SYMATTR Value 22p
SYMBOL cap 1344 1472 R0
SYMATTR InstName C3
SYMATTR Value 10p
SYMBOL cap 1392 1280 R0
SYMATTR SpiceLine V=6.3 Irms=0 Rser=0.0008 MTBF=0 Lser=0 mfg="TDK" pn="C3225X5R0J226M" type="X5R" ppPkg=1
SYMATTR SpiceLine2 x1
SYMATTR InstName C4
SYMATTR Value 22µ
SYMBOL cap 2256 1392 R0
SYMATTR SpiceLine V=6.3 Irms=0 Rser=0.0008 MTBF=0 Lser=0 mfg="TDK" pn="C3225X5R0J226M" type="X5R" ppPkg=1
SYMATTR SpiceLine2 x1
SYMATTR InstName C5
SYMATTR Value 22µ
SYMBOL PowerProducts\\LTC3411A 1712 1456 R0
SYMATTR InstName U1
SYMBOL voltage 1952 1792 R0
WINDOW 123 24 124 Left 2
WINDOW 39 0 0 Left 0
SYMATTR Value2 AC 1
SYMATTR InstName V2
SYMATTR Value SINE(1 1 700)
SYMBOL res 1920 1456 R0
SYMATTR InstName R6
SYMATTR Value 10k
SYMBOL bv 1936 1552 R0
SYMATTR InstName B1
SYMATTR Value V=-V(xyz) + 2
SYMBOL ind 2880 1232 R0
SYMATTR InstName L2
SYMATTR Value 100µH
SYMATTR SpiceLine Rser=1m
SYMBOL voltage 2656 1600 R0
WINDOW 123 24 124 Left 2
WINDOW 39 0 0 Left 0
SYMATTR Value2 AC 4
SYMATTR InstName V3
SYMATTR Value PULSE(0 4 0 1n 1n 71.428n 142.857n)
SYMBOL nmos 2768 1536 R0
SYMATTR InstName M1
SYMATTR Value 2N7002
SYMBOL cap 3040 1520 R90
WINDOW 0 0 32 VBottom 2
WINDOW 3 32 32 VTop 2
SYMATTR InstName C7
SYMATTR Value 100nF
SYMBOL ind 3296 1520 R90
WINDOW 0 5 56 VBottom 2
WINDOW 3 32 56 VTop 2
SYMATTR InstName L3
SYMATTR Value 1.3µH
SYMATTR SpiceLine Rser=1m
SYMBOL cap 3136 1600 R0
SYMATTR InstName C8
SYMATTR Value 470p
SYMBOL cap 3568 1584 R0
SYMATTR InstName C9
SYMATTR Value 470p
SYMBOL res 3680 1552 R0
SYMATTR InstName R7
SYMATTR Value 50
SYMBOL ind 3520 1520 R90
WINDOW 0 5 56 VBottom 2
WINDOW 3 32 56 VTop 2
SYMATTR InstName L4
SYMATTR Value 1.3µH
SYMATTR SpiceLine Rser=1m
SYMBOL cap 3344 1584 R0
SYMATTR InstName C10
SYMATTR Value 820p
SYMBOL res 2784 1600 R90
WINDOW 0 0 56 VBottom 2
WINDOW 3 32 56 VTop 2
SYMATTR InstName R8
SYMATTR Value 10
SYMBOL diode 2512 1488 R180
WINDOW 0 24 64 Left 2
WINDOW 3 24 0 Left 2
SYMATTR InstName D1
SYMATTR Value SS24
TEXT 2248 1616 Left 2 !.tran 10m startup
TEXT 1760 1232 Bottom 2 ;LTC3411A - 1.25A, 4MHz, Synchronous Step-Down DC/DC Converter\nInput: 3.3V      Output: 1.0V @ 1A
TEXT 3016 1288 Left 2 ;RFC
TEXT 3176 1392 Left 2 !.four 7Meg V(n010)
