Version 4.1
SHEET 1 2184 980
WIRE 304 -112 -16 -112
WIRE 336 -112 304 -112
WIRE -16 -80 -16 -112
WIRE 1136 -80 1008 -80
WIRE 1296 -80 1136 -80
WIRE 1328 -80 1296 -80
WIRE 832 -64 784 -64
WIRE 1008 -64 1008 -80
WIRE 1008 -64 912 -64
WIRE 1328 -64 1328 -80
WIRE 1008 -32 1008 -64
WIRE 1136 -32 1136 -80
WIRE 656 16 384 16
WIRE -16 32 -16 0
WIRE 624 48 448 48
WIRE 1008 64 1008 32
WIRE 784 80 784 -64
WIRE 304 112 304 -112
WIRE 336 112 336 -112
WIRE 384 112 384 16
WIRE 416 112 416 -16
WIRE 448 112 448 48
WIRE -576 160 -672 160
WIRE 176 160 -512 160
WIRE 752 160 608 160
WIRE 784 160 784 80
WIRE 784 160 752 160
WIRE -48 192 -144 192
WIRE 176 192 16 192
WIRE 1328 224 1328 16
WIRE 1328 224 1248 224
WIRE 1408 224 1328 224
WIRE 1584 224 1472 224
WIRE 1632 224 1584 224
WIRE 1792 224 1712 224
WIRE 1856 224 1792 224
WIRE 2016 224 1936 224
WIRE 2128 224 2016 224
WIRE 752 256 752 224
WIRE 2128 256 2128 224
WIRE 1792 272 1792 224
WIRE 2016 272 2016 224
WIRE 1584 288 1584 224
WIRE 1120 304 1024 304
WIRE -672 336 -672 160
WIRE 816 336 816 288
WIRE -672 448 -672 416
WIRE 272 528 272 464
WIRE 304 528 304 464
WIRE 336 528 336 464
WIRE 336 528 304 528
WIRE 416 528 336 528
WIRE 496 528 496 464
WIRE 496 528 416 528
WIRE 560 528 560 464
WIRE 560 528 496 528
WIRE 624 528 624 48
WIRE 624 528 560 528
WIRE 416 560 416 528
WIRE 464 592 464 464
WIRE 656 592 656 16
WIRE 656 592 464 592
WIRE 400 656 144 656
WIRE -464 672 -560 672
WIRE -400 672 -464 672
WIRE 144 704 144 656
WIRE 400 704 400 656
WIRE -560 720 -560 672
WIRE 144 816 144 784
WIRE 224 816 224 464
WIRE 224 816 144 816
WIRE 144 848 144 816
WIRE 400 848 400 784
WIRE -560 880 -560 800
WIRE 144 960 144 928
WIRE 400 960 400 928
FLAG -16 32 0
FLAG -672 448 0
FLAG 144 960 0
FLAG 400 960 0
FLAG -560 880 0
FLAG -464 672 HIGH
FLAG -144 192 0
FLAG 416 -16 HIGH
FLAG 416 560 0
FLAG 1008 64 0
FLAG 752 256 0
FLAG 816 416 0
FLAG 1248 320 0
FLAG 1584 352 0
FLAG 2016 336 0
FLAG 2128 336 0
FLAG 1792 336 0
FLAG 272 528 HIGH
FLAG 1136 48 0
FLAG 848 80 0
FLAG 1024 384 0
FLAG 1296 -80 ENV
FLAG 816 288 RF
SYMBOL voltage -16 -96 R0
SYMATTR InstName V1
SYMATTR Value 12V
SYMBOL voltage -672 320 R0
WINDOW 123 24 124 Left 2
WINDOW 39 0 0 Left 0
SYMATTR Value2 AC 1
SYMATTR InstName V2
SYMATTR Value SINE(0 1 700)
SYMBOL res 128 688 R0
SYMATTR InstName R1
SYMATTR Value 1G
SYMBOL res 128 832 R0
SYMATTR InstName R2
SYMATTR Value 5.6k
SYMBOL res 384 688 R0
SYMATTR InstName R3
SYMATTR Value 5k
SYMBOL res 384 832 R0
SYMATTR InstName R4
SYMATTR Value 1G
SYMBOL voltage -560 704 R0
SYMATTR InstName V3
SYMATTR Value 2V
SYMBOL cap -512 144 R90
WINDOW 0 0 32 VBottom 2
WINDOW 3 32 32 VTop 2
SYMATTR InstName C5
SYMATTR Value 1µ
SYMBOL cap 16 176 R90
WINDOW 0 61 86 VBottom 2
WINDOW 3 32 32 VTop 2
SYMATTR InstName C7
SYMATTR Value 1µ
SYMBOL ind 816 -48 R270
WINDOW 0 32 56 VTop 2
WINDOW 3 5 56 VBottom 2
SYMATTR InstName L1
SYMATTR Value 10µH
SYMATTR SpiceLine Rser=1
SYMBOL cap 992 -32 R0
SYMATTR InstName C1
SYMATTR Value 100nF
SYMBOL TPA3116D2 592 208 R0
SYMATTR InstName U1
SYMBOL diode 768 224 R180
WINDOW 0 24 64 Left 2
WINDOW 3 24 0 Left 2
SYMATTR InstName D1
SYMATTR Value MBRS340
SYMBOL ind 1312 -80 R0
SYMATTR InstName L2
SYMATTR Value 100µH
SYMATTR SpiceLine Rser=1m
SYMBOL voltage 816 320 R0
WINDOW 123 24 124 Left 2
SYMATTR Value2 AC 4
SYMATTR InstName V10
SYMATTR Value PULSE(0 4 0 1n 1n 71.428n 142.857n)
SYMBOL nmos 1200 224 R0
SYMATTR InstName M1
SYMATTR Value 2N7002
SYMBOL cap 1472 208 R90
WINDOW 0 0 32 VBottom 2
WINDOW 3 32 32 VTop 2
SYMATTR InstName C2
SYMATTR Value 100nF
SYMBOL ind 1728 208 R90
WINDOW 0 5 56 VBottom 2
WINDOW 3 32 56 VTop 2
SYMATTR InstName L3
SYMATTR Value 1.3µH
SYMATTR SpiceLine Rser=1m
SYMBOL cap 1568 288 R0
SYMATTR InstName C3
SYMATTR Value 470p
SYMBOL cap 2000 272 R0
SYMATTR InstName C4
SYMATTR Value 470p
SYMBOL res 2112 240 R0
SYMATTR InstName R6
SYMATTR Value 50
SYMBOL ind 1952 208 R90
WINDOW 0 5 56 VBottom 2
WINDOW 3 32 56 VTop 2
SYMATTR InstName L4
SYMATTR Value 1.3µH
SYMATTR SpiceLine Rser=1m
SYMBOL cap 1776 272 R0
SYMATTR InstName C6
SYMATTR Value 820p
SYMBOL res 1120 -48 R0
SYMATTR InstName R7
SYMATTR Value 470
SYMBOL diode 848 64 R90
WINDOW 0 0 32 VBottom 2
WINDOW 3 32 32 VTop 2
SYMATTR InstName D2
SYMATTR Value SS24
SYMBOL res 1216 288 R90
WINDOW 0 0 56 VBottom 2
WINDOW 3 32 56 VTop 2
SYMATTR InstName R5
SYMATTR Value 10
SYMBOL bv 1024 288 R0
SYMATTR InstName Bgate
SYMATTR Value V = if(V(ENV)>1.5, V(RF), 0)
TEXT 520 -520 Left 2 !.tran 0 3ms 0 startup
TEXT 520 -488 Left 2 !.measure Pin AVG(V(N001)*I(V1))\n.measure PoutR AVG(V(N003,N009)*I(R5))\n.measure ETA param (PoutR)/Pin
TEXT -120 -408 Left 2 !.options itl4=40
TEXT 1448 -24 Left 2 ;RFC
TEXT 1608 80 Left 2 !.four 7Meg V(n010)
